[Format]      =  4.0
[Frequency]   =  0
[Precision]   =  1e-008
[MinAngle]    =  15
[DoSmartMesh] =  1
[Depth]       =  100
[LengthUnits] =  millimeters
[ProblemType] =  planar
[Coordinates] =  cartesian
[ACSolver]    =  0
[PrevType]    =  0
[PrevSoln]    =  ""
[Comment]     =  "Add comments here."
[PointProps]   = 0
[BdryProps]   = 11
  <BeginBdry>
    <BdryName> = "A=0"
    <BdryType> = 0
    <A_0> = 0
    <A_1> = 0
    <A_2> = 0
    <Phi> = 0
    <c0> = 0
    <c0i> = 0
    <c1> = 0
    <c1i> = 0
    <Mu_ssd> = 0
    <Sigma_ssd> = 0
    <innerangle> = 0
    <outerangle> = 0
  <EndBdry>
  <BeginBdry>
    <BdryName> = "APr1"
    <BdryType> = 5
    <A_0> = 0
    <A_1> = 0
    <A_2> = 0
    <Phi> = 0
    <c0> = 0
    <c0i> = 0
    <c1> = 0
    <c1i> = 0
    <Mu_ssd> = 0
    <Sigma_ssd> = 0
    <innerangle> = 0
    <outerangle> = 0
  <EndBdry>
  <BeginBdry>
    <BdryName> = "APr2"
    <BdryType> = 5
    <A_0> = 0
    <A_1> = 0
    <A_2> = 0
    <Phi> = 0
    <c0> = 0
    <c0i> = 0
    <c1> = 0
    <c1i> = 0
    <Mu_ssd> = 0
    <Sigma_ssd> = 0
    <innerangle> = 0
    <outerangle> = 0
  <EndBdry>
  <BeginBdry>
    <BdryName> = "APr3"
    <BdryType> = 5
    <A_0> = 0
    <A_1> = 0
    <A_2> = 0
    <Phi> = 0
    <c0> = 0
    <c0i> = 0
    <c1> = 0
    <c1i> = 0
    <Mu_ssd> = 0
    <Sigma_ssd> = 0
    <innerangle> = 0
    <outerangle> = 0
  <EndBdry>
  <BeginBdry>
    <BdryName> = "APg1"
    <BdryType> = 5
    <A_0> = 0
    <A_1> = 0
    <A_2> = 0
    <Phi> = 0
    <c0> = 0
    <c0i> = 0
    <c1> = 0
    <c1i> = 0
    <Mu_ssd> = 0
    <Sigma_ssd> = 0
    <innerangle> = 0
    <outerangle> = 0
  <EndBdry>
  <BeginBdry>
    <BdryName> = "APg2"
    <BdryType> = 5
    <A_0> = 0
    <A_1> = 0
    <A_2> = 0
    <Phi> = 0
    <c0> = 0
    <c0i> = 0
    <c1> = 0
    <c1i> = 0
    <Mu_ssd> = 0
    <Sigma_ssd> = 0
    <innerangle> = 0
    <outerangle> = 0
  <EndBdry>
  <BeginBdry>
    <BdryName> = "APg3"
    <BdryType> = 5
    <A_0> = 0
    <A_1> = 0
    <A_2> = 0
    <Phi> = 0
    <c0> = 0
    <c0i> = 0
    <c1> = 0
    <c1i> = 0
    <Mu_ssd> = 0
    <Sigma_ssd> = 0
    <innerangle> = 0
    <outerangle> = 0
  <EndBdry>
  <BeginBdry>
    <BdryName> = "APs1"
    <BdryType> = 5
    <A_0> = 0
    <A_1> = 0
    <A_2> = 0
    <Phi> = 0
    <c0> = 0
    <c0i> = 0
    <c1> = 0
    <c1i> = 0
    <Mu_ssd> = 0
    <Sigma_ssd> = 0
    <innerangle> = 0
    <outerangle> = 0
  <EndBdry>
  <BeginBdry>
    <BdryName> = "APs2"
    <BdryType> = 5
    <A_0> = 0
    <A_1> = 0
    <A_2> = 0
    <Phi> = 0
    <c0> = 0
    <c0i> = 0
    <c1> = 0
    <c1i> = 0
    <Mu_ssd> = 0
    <Sigma_ssd> = 0
    <innerangle> = 0
    <outerangle> = 0
  <EndBdry>
  <BeginBdry>
    <BdryName> = "APs3"
    <BdryType> = 5
    <A_0> = 0
    <A_1> = 0
    <A_2> = 0
    <Phi> = 0
    <c0> = 0
    <c0i> = 0
    <c1> = 0
    <c1i> = 0
    <Mu_ssd> = 0
    <Sigma_ssd> = 0
    <innerangle> = 0
    <outerangle> = 0
  <EndBdry>
  <BeginBdry>
    <BdryName> = "AGap"
    <BdryType> = 7
    <A_0> = 0
    <A_1> = 0
    <A_2> = 0
    <Phi> = 0
    <c0> = 0
    <c0i> = 0
    <c1> = 0
    <c1i> = 0
    <Mu_ssd> = 0
    <Sigma_ssd> = 0
    <innerangle> = 0
    <outerangle> = 0
  <EndBdry>
[BlockProps]  = 9
  <BeginBlock>
    <BlockName> = "M270-35A"
    <Mu_x> = 1
    <Mu_y> = 1
    <H_c> = 0
    <H_cAngle> = 0
    <J_re> = 0
    <J_im> = 0
    <Sigma> = 0
    <d_lam> = 0
    <Phi_h> = 0
    <Phi_hx> = 0
    <Phi_hy> = 0
    <LamType> = 0
    <LamFill> = 1
    <NStrands> = 0
    <WireD> = 0
    <BHPoints> = 200
      0	0
      0.0045422769999999999	3.2767874890000002
      0.0090353559999999996	6.114592773
      0.013222249	8.4602422570000009
      0.017196487	10.462328400000001
      0.020991169	12.199266809999999
      0.024640190999999999	13.72982376
      0.028168996000000002	15.09561901
      0.031597466999999997	16.327217480000002
      0.034941272000000002	17.447599879999999
      0.038212956999999999	18.47443998
      0.041422729999999998	19.421601849999998
      0.044579012000000001	20.300151339999999
      0.047688851999999997	21.119056130000001
      0.050758219	21.885681389999998
      0.053792226999999998	22.60614816
      0.056795300999999999	23.285597330000002
      0.059771310000000001	23.928387470000001
      0.062723663999999998	24.538245379999999
      0.065655396000000005	25.11838217
      0.068569221	25.67158405
      0.071467592999999996	26.200284
      0.074352739000000001	26.70661905
      0.077226698999999996	27.19247648
      0.080091349000000006	27.65953137
      0.082948429000000004	28.109277410000001
      0.085799557999999998	28.54305239
      0.088646256000000007	28.96205934
      0.091489953999999998	29.36738437
      0.094332005999999996	29.760011540000001
      0.097173704999999999	30.140835630000002
      0.100016285	30.510672870000001
      0.102860934	30.870270300000001
      0.105708802	31.220313650000001
      0.108561001	31.561434299999998
      0.11141862	31.894215259999999
      0.114282722	32.21919639
      0.117154355	32.536878999999999
      0.120034552	32.847729870000002
      0.12292433699999999	33.152184810000001
      0.12582473199999999	33.45065185
      0.12873675200000001	33.743513989999997
      0.13166142	34.031131799999997
      0.13459976100000001	34.313845620000002
      0.137552811	34.591977620000002
      0.14052161499999999	34.865833639999998
      0.14350723800000001	35.135704879999999
      0.14651076099999999	35.401869419999997
      0.14953328699999999	35.664593680000003
      0.15257594699999999	35.924133650000002
      0.155639899	36.180736189999998
      0.158726334	36.434640119999997
      0.161836481	36.686077320000003
      0.16497160599999999	36.93527375
      0.16813302299999999	37.182450420000002
      0.17132209400000001	37.427824389999998
      0.17454023399999999	37.671609650000001
      0.17778891699999999	37.914018050000003
      0.18106968000000001	38.155260249999998
      0.18438413100000001	38.395546590000002
      0.18773395400000001	38.635088090000004
      0.191120915	38.87409736
      0.19454686800000001	39.112789630000002
      0.19801376800000001	39.351383830000003
      0.20152367299999999	39.590103640000002
      0.20507876	39.829178749999997
      0.208681327	40.068846100000002
      0.21233381500000001	40.309351300000003
      0.216038808	40.550950149999998
      0.21979905799999999	40.793910310000001
      0.22361749	41.038513199999997
      0.227497227	41.285056060000002
      0.2314416	41.53385428
      0.23545417299999999	41.785244059999997
      0.23953876299999999	42.039585369999998
      0.24369946200000001	42.297265359999997
      0.247940667	42.558702250000003
      0.25226710400000002	42.824349750000003
      0.25668386300000001	43.0947022
      0.26119642799999998	43.370300520000001
      0.26581071499999998	43.651739030000002
      0.27054201700000002	43.94020278
      0.275438138	44.23873004
      0.28051031599999998	44.548036490000001
      0.28576849199999999	44.868763260000001
      0.29122336399999998	45.201605100000002
      0.296886504	45.547319020000003
      0.30277045699999999	45.906731970000003
      0.30888884599999999	46.280749559999997
      0.31525650100000002	46.670366299999998
      0.321889598	47.076677459999999
      0.328805825	47.50089294
      0.33602457000000002	47.944353649999996
      0.34356714500000002	48.408550759999997
      0.351457032	48.895148689999999
      0.35972019	49.406012390000001
      0.36838539799999998	49.943240269999997
      0.37748466600000002	50.509203810000002
      0.38705371900000002	51.106595769999998
      0.39713256899999999	51.738489119999997
      0.40776619800000002	52.408409570000003
      0.41900536300000002	53.120425429999997
      0.43090757000000002	53.879259759999997
      0.44353822799999998	54.690431349999997
      0.45697202599999998	55.560433060000001
      0.47129457299999999	56.49695913
      0.486604327	57.509196449999997
      0.503014823	58.60819978
      0.520657166	59.807376320000003
      0.53968265500000001	61.123111049999999
      0.56026517099999995	62.575567960000001
      0.58260257699999995	64.189698669999999
      0.60691558199999995	65.996464399999994
      0.63344113800000001	68.034201780000004
      0.662415215	70.349880479999996
      0.69403682899999997	72.999622560000006
      0.72840307800000004	76.047204840000006
      0.76540934699999996	79.558509650000005
      0.80463064699999998	83.589963030000007
      0.84524547999999999	88.171938179999998
      0.88609953900000005	93.294734669999997
      0.92594964300000004	98.90894376
      0.963771241	104.9435902
      0.99893980100000002	111.3300564
      1.0312218310000001	118.0174305
      1.0606584889999999	124.9760964
      1.0874410889999999	132.19454709999999
      1.1118223309999999	139.6744898
      1.1340651580000001	147.42664859999999
      1.1544176930000001	155.46782519999999
      1.173103241	163.8190534
      1.1903180360000001	172.50453999999999
      1.2062325739999999	181.55112829999999
      1.220994358	190.98810510000001
      1.234730984	200.84723579999999
      1.2475531	211.16296399999999
      1.2595570490000001	221.97273730000001
      1.270827143	233.31744900000001
      1.281437594	245.2419931
      1.291454146	257.79594609999998
      1.3009354369999999	271.03439809999998
      1.309934159	285.01896390000002
      1.318498043	299.81902289999999
      1.326670706	315.51324579999999
      1.3344924010000001	332.19149570000002
      1.3420006879999999	349.95721329999998
      1.3492310569999999	368.93044570000001
      1.356217531	389.25173360000002
      1.362993272	411.08716509999999
      1.3695912379999999	434.63503709999998
      1.3760449050000001	460.1347695
      1.382389146	487.87903890000001
      1.3886613240000001	518.23060969999995
      1.394902732	551.64618570000005
      1.401160583	588.71104339999999
      1.4074908660000001	630.19074279999995
      1.4139626249999999	677.11087850000001
      1.420664664	730.8848299
      1.4277165590000001	793.52783980000004
      1.435287779	868.03580320000003
      1.4436331710000001	959.10175079999999
      1.453164339	1074.5891859999999
      1.464608755	1228.9034079999999
      1.479413587	1451.8548430000001
      1.5007295060000001	1812.597843
      1.531321148	2396.2922779999999
      1.5749716949999999	3340.7297119999998
      1.6351726849999999	4868.8615820000005
      1.6746062129999999	6056.7860730000002
      1.7053540309999999	7126.7301200000002
      1.7307497590000001	8135.9466300000004
      1.752580204	9119.3875740000003
      1.771845345	10098.25848
      1.789165838	11087.22133
      1.804957089	12097.58993
      1.819514077	13138.977849999999
      1.8330565510000001	14220.25051
      1.845754994	15350.15127
      1.8577465099999999	16537.778849999999
      1.869145125	17793.012470000001
      1.8800488470000001	19126.948680000001
      1.8905448170000001	20552.403480000001
      1.9007133519999999	22084.53774
      1.9106314310000001	23741.68173
      1.920376064	25546.46932
      1.930027954	27527.455720000002
      1.9396760099999999	29721.505959999999
      1.9494234969999999	32177.45292
      1.959397184	34961.935420000002
      1.969762051	38169.180130000001
      1.980746793	41938.394229999998
      1.9926918389999999	46487.096960000003
      2.0061495709999999	52181.595710000001
      2.022124024	59707.652569999998
      2.042772002	70576.241299999994
      2.0725625070000002	88161.987269999998
      2.1158769670000002	116616.322
      2.1803765140000002	162656.4026
      2.2792825830000001	237150.818
      2.3747656959999999	310949.48619999998
  <EndBlock>
  <BeginBlock>
    <BlockName> = "ShaftAir"
    <Mu_x> = 1
    <Mu_y> = 1
    <H_c> = 0
    <H_cAngle> = 0
    <J_re> = 0
    <J_im> = 0
    <Sigma> = 0
    <d_lam> = 0
    <Phi_h> = 0
    <Phi_hx> = 0
    <Phi_hy> = 0
    <LamType> = 0
    <LamFill> = 1
    <NStrands> = 0
    <WireD> = 0
    <BHPoints> = 3
      -100	-7.9577471545947675e-011
      0	0
      100	7.9577471545947675e-011
  <EndBlock>
  <BeginBlock>
    <BlockName> = "Copper"
    <Mu_x> = 1
    <Mu_y> = 1
    <H_c> = 0
    <H_cAngle> = 0
    <J_re> = 0
    <J_im> = 0
    <Sigma> = 58
    <d_lam> = 0
    <Phi_h> = 0
    <Phi_hx> = 0
    <Phi_hy> = 0
    <LamType> = 0
    <LamFill> = 1
    <NStrands> = 0
    <WireD> = 0
    <BHPoints> = 0
  <EndBlock>
  <BeginBlock>
    <BlockName> = "Aluminium"
    <Mu_x> = 1
    <Mu_y> = 1
    <H_c> = 0
    <H_cAngle> = 0
    <J_re> = 0
    <J_im> = 0
    <Sigma> = 29
    <d_lam> = 0
    <Phi_h> = 0
    <Phi_hx> = 0
    <Phi_hy> = 0
    <LamType> = 0
    <LamFill> = 1
    <NStrands> = 0
    <WireD> = 0
    <BHPoints> = 0
  <EndBlock>
  <BeginBlock>
    <BlockName> = "N33EH"
    <Mu_x> = 1.04
    <Mu_y> = 1.04
    <H_c> = 775421.24677560921
    <H_cAngle> = 0
    <J_re> = 0
    <J_im> = 0
    <Sigma> = 0.71428570999999996
    <d_lam> = 0
    <Phi_h> = 0
    <Phi_hx> = 0
    <Phi_hy> = 0
    <LamType> = 0
    <LamFill> = 1
    <NStrands> = 0
    <WireD> = 0
    <BHPoints> = 0
  <EndBlock>
  <BeginBlock>
    <BlockName> = "DW235"
    <Mu_x> = 1
    <Mu_y> = 1
    <H_c> = 0
    <H_cAngle> = 0
    <J_re> = 0
    <J_im> = 0
    <Sigma> = 0
    <d_lam> = 0
    <Phi_h> = 0
    <Phi_hx> = 0
    <Phi_hy> = 0
    <LamType> = 0
    <LamFill> = 1
    <NStrands> = 0
    <WireD> = 0
    <BHPoints> = 0
  <EndBlock>
  <BeginBlock>
    <BlockName> = "Air"
    <Mu_x> = 1
    <Mu_y> = 1
    <H_c> = 0
    <H_cAngle> = 0
    <J_re> = 0
    <J_im> = 0
    <Sigma> = 0
    <d_lam> = 0
    <Phi_h> = 0
    <Phi_hx> = 0
    <Phi_hy> = 0
    <LamType> = 0
    <LamFill> = 1
    <NStrands> = 0
    <WireD> = 0
    <BHPoints> = 0
  <EndBlock>
  <BeginBlock>
    <BlockName> = "N33EH_1"
    <Mu_x> = 1.04
    <Mu_y> = 1.04
    <H_c> = 775421.24677560921
    <H_cAngle> = 0
    <J_re> = 0
    <J_im> = 0
    <Sigma> = 0.71428570999999996
    <d_lam> = 0
    <Phi_h> = 0
    <Phi_hx> = 0
    <Phi_hy> = 0
    <LamType> = 0
    <LamFill> = 1
    <NStrands> = 0
    <WireD> = 0
    <BHPoints> = 0
  <EndBlock>
  <BeginBlock>
    <BlockName> = "N33EH_2"
    <Mu_x> = 1.04
    <Mu_y> = 1.04
    <H_c> = 775421.24677560921
    <H_cAngle> = 0
    <J_re> = 0
    <J_im> = 0
    <Sigma> = 0.71428570999999996
    <d_lam> = 0
    <Phi_h> = 0
    <Phi_hx> = 0
    <Phi_hy> = 0
    <LamType> = 0
    <LamFill> = 1
    <NStrands> = 0
    <WireD> = 0
    <BHPoints> = 0
  <EndBlock>
[CircuitProps]  = 6
  <BeginCircuit>
    <CircuitName> = "fase1"
    <TotalAmps_re> = 0
    <TotalAmps_im> = 0
    <CircuitType> = 1
  <EndCircuit>
  <BeginCircuit>
    <CircuitName> = "fase2"
    <TotalAmps_re> = 0
    <TotalAmps_im> = 0
    <CircuitType> = 1
  <EndCircuit>
  <BeginCircuit>
    <CircuitName> = "fase3"
    <TotalAmps_re> = 0
    <TotalAmps_im> = 0
    <CircuitType> = 1
  <EndCircuit>
  <BeginCircuit>
    <CircuitName> = "fase1n"
    <TotalAmps_re> = 0
    <TotalAmps_im> = 0
    <CircuitType> = 1
  <EndCircuit>
  <BeginCircuit>
    <CircuitName> = "fase2n"
    <TotalAmps_re> = 0
    <TotalAmps_im> = 0
    <CircuitType> = 1
  <EndCircuit>
  <BeginCircuit>
    <CircuitName> = "fase3n"
    <TotalAmps_re> = 0
    <TotalAmps_im> = 0
    <CircuitType> = 1
  <EndCircuit>
[NumPoints] = 115
58.204410548211065	24.109056239000655	0	2
47.588110840123868	19.711640917693408	0	2
44.547727214752491	44.547727214752491	0	20
36.422363192137873	36.422363192137873	0	2
42.38677442334243	38.866393175997317	0	2
37.964785339844816	34.811666939396979	0	2
62.999999999999993	0	0	20
51.508999999999993	0	0	2
57.454665802380205	2.4892854523596917	0	2
51.460722917351042	2.2295914028407466	0	2
40	0	0	2
28.284271247461902	28.284271247461898	0	2
0	0	0	2
97.5	0	0	1
64	0	0	20
68.942911165688386	68.942911165688372	0	1
45.254833995939045	45.254833995939038	0	20
65.784212820584983	5.3296435263718998	0	1
65.850645328231337	4.3160793234303716	0	1
67.32763343542743	6.3422786969722997	0	1
86.62665037208798	8.8830424776651142	0	1
87.077454264612896	8.5199800371688248	0	1
87.312655783377807	5.7227738076375179	0	1
87.444575124205954	2.9187981065171367	0	1
87.045017079370908	2.5000000000000004	0	1
67.579469686328224	2.5000000000000009	0	1
65.917077835877691	3.302515120488843	0	1
76.716977939257831	2.5000000000000009	0	1
76.386969038555279	7.5349628556064969	0	1
63.788494974107763	5.1988372679116139	0	1
63.921359989400472	3.1717088620285563	0	1
64.525761685102552	13.870610494840072	0	1
64.723922529417209	12.874388656423958	0	1
65.923802709699928	15.076039247027545	0	1
84.726077659493697	20.114093635692715	0	1
85.220414020120941	19.812978960234091	0	1
85.818712035282658	17.070403176411222	0	1
86.315495059207336	14.307634805356869	0	1
85.974019410987708	13.840266784534165	0	1
66.675002474327172	11.299503003841354	0	1
64.922083373731866	11.878166818007847	0	1
75.734338077455007	12.492187162475551	0	1
74.749957919134133	17.44100040766719	0	1
62.564191124296073	13.480429850807813	0	1
62.960512812925401	11.487986173975587	0	1
62.163256877267067	22.174247472081767	0	1
62.489755471263244	21.212413630051248	0	1
63.391997442078306	23.551844585698397	0	1
81.375818267638891	31.000987074933299	0	1
81.905228864182192	30.766972320094197	0	1
82.856386330821749	28.125953214026637	0	1
83.709532942569325	25.451663905851156	0	1
83.431982433981105	24.943722767138059	0	1
64.629707484187335	19.905668378472889	0	1
62.816254065259429	20.250579788020726	0	1
73.455862693621555	22.270629539112534	0	1
71.83395429511296	27.048617607193837	0	1
60.269396618276843	21.531368541475445	0	1
60.922393806269213	19.6077008574144	0	1
58.737121509350672	30.098476927213284	0	1
59.186371371562586	29.187488325276213	0	1
59.775537522640619	31.624671333703013	0	1
76.633196063585544	41.357445030224362	0	1
77.188622533957698	41.194534253341217	0	1
78.476364884110225	38.700260394162612	0	1
79.671277508616782	36.160207980381962	0	1
79.462401105813441	35.620384737489744	0	1
61.478580280252871	28.171242248254842	0	1
59.635621233774501	28.276499723339146	0	1
69.92053713328751	31.668015269750278	0	1
67.688851796967626	36.193425460167816	0	1
56.943376026285286	29.213899546775274	0	1
57.841875750709114	27.39192234290114	0	1
54.305977707402612	37.507713097245826	0	1
54.870292048132221	36.663157002955117	0	1
55.136301583280563	39.156391187172588	0	1
70.579358628148341	51.006265634598236	0	1
71.151297471447961	50.917246284230927	0	1
72.753591076472716	48.612395389215187	0	1
74.269824427440582	46.25004087086473	0	1
74.133196063585558	45.687572049146546	0	1
57.275537522640633	35.954798352625204	0	1
55.43460638886183	35.818600908664401	0	1
65.18885179696764	40.523552479090007	0	1
62.385574277681002	44.718953768804994	0	1
52.643038482797508	36.396572631206624	0	1
53.771667164256733	34.707460442625198	0	1
48.945643570419357	44.275181897081815	0	1
49.615366814839291	43.51150889936595	0	1
49.553668237159776	46.018134331227031	0	1
63.317888798288386	59.782354892355642	0	1
63.896553982335234	59.768750114269778	0	1
65.78598315441053	57.692758821256014	0	1
67.597594058825322	55.548522739113139	0	1
67.535551483104712	54.973032336054409	0	1
52.092494438236969	43.123157888628768	0	1
50.285090059259218	42.747835901650099	0	1
59.341767132637401	48.685720470261174	0	1
56.014862285954351	52.479328380021606	0	1
47.441963955461389	42.956490266881673	0	1
48.781410444301251	41.42914427144995	0	1
96.665873983946511	12.726303741455029	0	1
63.452471127923864	8.3536763020833007	0	1
94.17776806318416	25.234856897495771	0	1
61.819252882500372	16.564418886561327	0	1
90.078254419850452	37.311634655596251	0	1
59.128290080722351	24.491739671365746	0	1
84.437476868982756	48.75	0	1
55.42562584220407	32	0	1
77.351950678395426	59.354239328350261	0	1
50.774613778639051	38.960731456558122	0	1
63.666666666666664	0	0	20
45.019131735543525	45.019131735543517	0	20
63.333333333333336	0	0	20
44.783429475148012	44.783429475148004	0	20
[NumSegments] = 98
0	1	1.25	0	0	2
3	2	-1	4	0	2
5	4	1.25	0	0	2
7	6	-1	4	0	2
9	8	1.25	0	0	2
7	10	-1	3	0	2
11	3	-1	3	0	2
10	12	-1	2	0	2
12	11	-1	2	0	2
13	14	-1	10	0	1
16	15	-1	10	0	1
17	18	1.25	0	0	1
19	17	1.25	0	0	1
20	28	1.25	0	0	1
22	21	1.25	0	0	1
23	22	1.25	0	0	1
25	27	1.25	0	0	1
26	25	1.25	0	0	1
18	26	1.25	0	0	1
27	24	1.25	0	0	1
28	19	1.25	0	0	1
27	28	1.25	0	0	1
17	29	1.25	0	0	1
30	26	1.25	0	0	1
31	32	1.25	0	0	1
33	31	1.25	0	0	1
34	42	1.25	0	0	1
36	35	1.25	0	0	1
37	36	1.25	0	0	1
39	41	1.25	0	0	1
40	39	1.25	0	0	1
32	40	1.25	0	0	1
41	38	1.25	0	0	1
42	33	1.25	0	0	1
41	42	1.25	0	0	1
31	43	1.25	0	0	1
44	40	1.25	0	0	1
45	46	1.25	0	0	1
47	45	1.25	0	0	1
48	56	1.25	0	0	1
50	49	1.25	0	0	1
51	50	1.25	0	0	1
53	55	1.25	0	0	1
54	53	1.25	0	0	1
46	54	1.25	0	0	1
55	52	1.25	0	0	1
56	47	1.25	0	0	1
55	56	1.25	0	0	1
45	57	1.25	0	0	1
58	54	1.25	0	0	1
59	60	1.25	0	0	1
61	59	1.25	0	0	1
62	70	1.25	0	0	1
64	63	1.25	0	0	1
65	64	1.25	0	0	1
67	69	1.25	0	0	1
68	67	1.25	0	0	1
60	68	1.25	0	0	1
69	66	1.25	0	0	1
70	61	1.25	0	0	1
69	70	1.25	0	0	1
59	71	1.25	0	0	1
72	68	1.25	0	0	1
73	74	1.25	0	0	1
75	73	1.25	0	0	1
76	84	1.25	0	0	1
78	77	1.25	0	0	1
79	78	1.25	0	0	1
81	83	1.25	0	0	1
82	81	1.25	0	0	1
74	82	1.25	0	0	1
83	80	1.25	0	0	1
84	75	1.25	0	0	1
83	84	1.25	0	0	1
73	85	1.25	0	0	1
86	82	1.25	0	0	1
87	88	1.25	0	0	1
89	87	1.25	0	0	1
90	98	1.25	0	0	1
92	91	1.25	0	0	1
93	92	1.25	0	0	1
95	97	1.25	0	0	1
96	95	1.25	0	0	1
88	96	1.25	0	0	1
97	94	1.25	0	0	1
98	89	1.25	0	0	1
97	98	1.25	0	0	1
87	99	1.25	0	0	1
100	96	1.25	0	0	1
101	102	1.25	0	0	1
103	104	1.25	0	0	1
105	106	1.25	0	0	1
107	108	1.25	0	0	1
109	110	1.25	0	0	1
111	14	0.125	7	0	20
112	16	0.125	7	0	20
113	6	0.125	5	0	20
114	2	0.125	5	0	20
[NumArcSegments] = 47
0	2	22.5	0.28420525552124165	0	0	2	1
1	5	20.019149999999996	0.34760781800924545	0	0	2	1
0	4	48.972290200017696	0.68609937101533236	0	0	2	1
5	3	2.4808500000000056	0.34760781800924551	0	0	2	1
6	0	22.5	0.28420525552124171	0	0	2	1
7	9	2.4808500000000042	0.34760781800924551	0	0	2	1
8	0	48.972290200017682	0.68609937101533258	0	0	2	1
9	1	20.019149999999996	0.34760781800924551	0	0	2	1
10	11	45	0.44762327744595565	0	0	2	1
13	101	7.4999999999999991	1.25	1	0	1	1
14	30	2.8406250000000011	0.27976454840372228	0	0	1	1
21	20	92.693622538907519	10	0	0	1	1
24	23	92.693622538908187	10	0	0	1	1
29	102	2.8406249999999971	0.27976454840372228	0	0	1	1
30	29	1.8187500000000008	0.27976454840372228	0	0	1	1
35	34	92.693622538909551	10	0	0	1	1
38	37	92.693622538908855	10	0	0	1	1
43	104	2.8406249999999944	0.27976454840372228	0	0	1	1
44	43	1.8187499999999992	0.27976454840372228	0	0	1	1
49	48	92.693622538907562	10	0	0	1	1
52	51	92.693622538909068	10	0	0	1	1
57	106	2.840625000000002	0.27976454840372228	0	0	1	1
58	57	1.8187500000000034	0.27976454840372228	0	0	1	1
63	62	92.693622538907832	10	0	0	1	1
66	65	92.693622538905714	10	0	0	1	1
71	108	2.8406249999999988	0.27976454840372228	0	0	1	1
72	71	1.8187500000000001	0.27976454840372228	0	0	1	1
77	76	92.693622538906283	10	0	0	1	1
80	79	92.693622538906368	10	0	0	1	1
85	110	2.8406250000000082	0.27976454840372228	0	0	1	1
86	85	1.8187499999999941	0.27976454840372228	0	0	1	1
91	90	92.693622538909125	10	0	0	1	1
94	93	92.693622538912138	10	0	0	1	1
99	16	2.8406249999999962	0.27976454840372228	0	0	1	1
100	99	1.8187500000000039	0.27976454840372228	0	0	1	1
101	103	7.4999999999999911	1.25	1	0	1	1
102	44	2.8406250000000002	0.27976454840372228	0	0	1	1
103	105	7.4999999999999982	1.25	1	0	1	1
104	58	2.840624999999998	0.27976454840372228	0	0	1	1
105	107	7.4999999999999982	1.25	1	0	1	1
106	72	2.8406250000000002	0.27976454840372228	0	0	1	1
107	109	7.4999999999999929	1.25	1	0	1	1
108	86	2.8406249999999935	0.27976454840372228	0	0	1	1
109	15	7.4999999999999947	1.25	1	0	1	1
110	100	2.8406249999999904	0.27976454840372228	0	0	1	1
111	112	45	0.125	11	0	20	1
113	114	45	0.125	11	0	20	1
[NumHoles] = 0
[NumBlockLabels] = 32
47.697263176242338	30.397715100471707	8	1.25	0	-157.50000000000003	201	1	0
55.221488716080621	12.232627755840108	9	1.25	0	-157.50000000000003	202	1	0
40.330412542519404	38.662037630571163	7	1.25	0	0	2	1	0
55.85609717993281	1.1797192138001087	7	1.25	0	0	2	1	0
42.271646070287666	17.5094891061485	1	1.25	0	0	22	1	0
18.477590650225736	7.6536686473017959	7	1.25	0	0	2	1	0
71.201309408568946	4.6667803756168098	3	1.25	1	0	1	1	0
81.902637569244163	5.368182479989688	3	1.25	1	0	1	1	0
64.856808207750973	4.2509397970797638	7	1.25	0	0	10	1	0
92.301950399570828	6.0497894537882333	1	1.25	0	0	12	1	0
69.983035263855896	13.920491220747664	3	1.25	1	0	1	1	0
80.501260732733257	16.012696349395075	3	1.25	1	0	1	1	0
63.747090237611971	12.680084632728082	7	1.25	0	0	10	1	0
90.722638437298812	18.045854786491862	1	1.25	0	0	12	1	0
67.567331982815247	22.936018601602214	3	1.25	3	0	1	-1	0
77.722485005919253	26.383228544704153	3	1.25	3	0	1	-1	0
61.546641879474997	20.892269704726793	7	1.25	0	0	10	1	0
87.591036978297282	29.733150540542443	1	1.25	0	0	12	1	0
63.99553291834507	31.559104345117632	3	1.25	3	0	1	-1	0
73.613856011910045	36.302336384800462	3	1.25	3	0	1	-1	0
58.29311341482731	28.746982249646145	7	1.25	0	0	10	1	0
82.960728591773673	40.91170384525762	1	1.25	0	0	12	1	0
59.328752542728274	39.642205063451307	3	1.25	2	0	1	1	0
68.245673531920374	45.600301184443694	3	1.25	2	0	1	1	0
54.042173617747551	36.109825958104821	7	1.25	0	0	10	1	0
76.910939137985437	51.390246554313201	1	1.25	0	0	12	1	0
53.646840762067583	47.047016662253675	3	1.25	2	0	1	1	0
61.709788656524168	54.118032188029105	3	1.25	2	0	1	1	0
48.866557246746915	42.854820532885171	7	1.25	0	0	10	1	0
69.545182191805409	60.989487896756366	1	1.25	0	0	12	1	0
58.974310158637138	24.4279590993049	7	0.125	0	0	20	1	0
58.358390470296278	24.172836811061504	7	0.125	0	0	20	1	0
